testcases/gridlabd/R4-12.47-1_LF3.57/R4-12.47-1_LF3.57.glm
// $Id: R4-12.47-1.glm 
// 13.8 kV feeder 
//********************************************* 
clock{ 
     timezone EST+8EDT; 
     timestamp '2000-01-01 0:00:00'; 
     stoptime '2000-01-01 0:00:00'; 

} 

#set profiler=1 
//********************************************* 
// modules 
module tape; 
module powerflow{ 
     solver_method NR; 
      default_maximum_voltage_error 1e-5;
}; 

//********************************************* 
object regulator:3886 { 
     name R4-12-47-1_reg_1; 
     from R4-12-47-1_node_572; 
     to R4-12-47-1_meter_76; 
     phases ABCN; 
     configuration feeder_reg_cfg; 
} 

object regulator_configuration:3887 { 
     name feeder_reg_cfg; 
     Control MANUAL; 
     band_center 8300.0; 
     band_width 133; 
     connect_type WYE_WYE; 
     time_delay 30; 
     raise_taps 16; 
     lower_taps 16; 
     regulation 0.10; 
     tap_pos_A 0; 
     tap_pos_B 0; 
     tap_pos_C 0; 
} 

object capacitor:3883 { 
     name R4-12-47-1_cap_1; 
     phases ABCN; 
     pt_phase B; 
     parent R4-12-47-1_node_532; 
     phases_connected ABC; 
     control MANUAL; 
	 switchA CLOSED;
     switchB CLOSED;
     switchC CLOSED;
     voltage_set_high 7300; 
     voltage_set_low 7100; 
     capacitor_A 0.1 MVAr; 
     capacitor_B 0.1 MVAr; 
     capacitor_C 0.1 MVAr; 
     control_level INDIVIDUAL; 
     time_delay 30.0; 
     dwell_time 30.0; 
     cap_nominal_voltage 7970; 
     nominal_voltage 7967.43; 
} 

object capacitor:3884 { 
     name R4-12-47-1_cap_2; 
     phases ABCN; 
     pt_phase B; 
     parent R4-12-47-1_node_533; 
     phases_connected ABC; 
     control VOLT; 
     voltage_set_high 7300; 
     voltage_set_low 7100; 
     capacitor_A 0.3 MVAr; 
     capacitor_B 0.3 MVAr; 
     capacitor_C 0.3 MVAr; 
     control_level INDIVIDUAL; 
     time_delay 30.0; 
     dwell_time 30.0; 
     cap_nominal_voltage 7970; 
     nominal_voltage 7967.43; 
} 

object capacitor { 
     name R4-12-47-1_cap_3; 
     phases BCN; 
     pt_phase C; 
     parent R4-12-47-1_node_198; 
     phases_connected BC; 
     control MANUAL; 
     capacitor_A 0.15 MVAr; 
     capacitor_B 0.15 MVAr; 
     capacitor_C 0.15 MVAr; 
     control_level INDIVIDUAL; 
     time_delay 30.0; 
     dwell_time 30.0; 
     cap_nominal_voltage 7970; 
     nominal_voltage 7967.43;
     switchA CLOSED;
     switchB CLOSED;
     switchC CLOSED;
}

object capacitor { 
     name R4-12-47-1_cap_4; 
     phases CN; 
     pt_phase C; 
     parent R4-12-47-1_node_213; 
     phases_connected C; 
     control MANUAL; 
     capacitor_A 0.15 MVAr; 
     capacitor_B 0.15 MVAr; 
     capacitor_C 0.15 MVAr; 
     control_level INDIVIDUAL; 
     time_delay 30.0; 
     dwell_time 30.0; 
     cap_nominal_voltage 7970; 
     nominal_voltage 7967.43;
     switchA CLOSED;
     switchB CLOSED;
     switchC CLOSED;
}

object capacitor { 
     name R4-12-47-1_cap_5; 
     phases CN; 
     pt_phase C; 
     parent R4-12-47-1_node_403; 
     phases_connected C; 
     control MANUAL; 
     capacitor_A 0.05 MVAr; 
     capacitor_B 0.05 MVAr; 
     capacitor_C 0.05 MVAr; 
     control_level INDIVIDUAL; 
     time_delay 30.0; 
     dwell_time 30.0; 
     cap_nominal_voltage 7970; 
     nominal_voltage 7967.43;
     switchA CLOSED;
     switchB CLOSED;
     switchC CLOSED;
}

object capacitor { 
     name R4-12-47-1_cap_6; 
     phases ABCN; 
     pt_phase C; 
     parent R4-12-47-1_node_404; 
     phases_connected ABC; 
     control MANUAL; 
     capacitor_A 0.05 MVAr; 
     capacitor_B 0.05 MVAr; 
     capacitor_C 0.05 MVAr; 
     control_level INDIVIDUAL; 
     time_delay 30.0; 
     dwell_time 30.0; 
     cap_nominal_voltage 7970; 
     nominal_voltage 7967.43;
     switchA CLOSED;
     switchB CLOSED;
     switchC CLOSED;
}

object fuse:3795 { 
     name R4-12-47-1_fuse_1; 
     phases CN; 
     from R4-12-47-1_node_515; 
     to R4-12-47-1_node_2; 
     current_limit 50000;// 100; 
     status CLOSED; 
} 

object fuse:3796 { 
     name R4-12-47-1_fuse_2; 
     phases CN; 
     from R4-12-47-1_node_7; 
     to R4-12-47-1_node_6; 
     current_limit 50000;// 100; 
     status CLOSED; 
} 

object fuse:3797 { 
     name R4-12-47-1_fuse_3; 
     phases CN; 
     from R4-12-47-1_node_499; 
     to R4-12-47-1_node_29; 
     current_limit 50000;// 40; 
     status CLOSED; 
} 

object fuse:3798 { 
     name R4-12-47-1_fuse_4; 
     phases ABCN; 
     from R4-12-47-1_node_40; 
     to R4-12-47-1_node_39; 
     current_limit 50000;// 100; 
     status CLOSED; 
} 

object fuse:3799 { 
     name R4-12-47-1_fuse_5; 
     phases AN; 
     from R4-12-47-1_node_49; 
     to R4-12-47-1_node_54; 
     current_limit 50000;// 60; 
     status CLOSED; 
} 

object fuse:3800 { 
     name R4-12-47-1_fuse_6; 
     phases AN; 
     from R4-12-47-1_node_55; 
     to R4-12-47-1_node_60; 
     current_limit 50000;// 60; 
     status CLOSED; 
} 

object fuse:3801 { 
     name R4-12-47-1_fuse_7; 
     phases BN; 
     from R4-12-47-1_node_62; 
     to R4-12-47-1_node_63; 
     current_limit 50000;// 60; 
     status CLOSED; 
} 

object fuse:3802 { 
     name R4-12-47-1_fuse_8; 
     phases CN; 
     from R4-12-47-1_node_56; 
     to R4-12-47-1_node_64; 
     current_limit 50000;// 60; 
     status CLOSED; 
} 

object fuse:3803 { 
     name R4-12-47-1_fuse_9; 
     phases CN; 
     from R4-12-47-1_node_71; 
     to R4-12-47-1_node_72; 
     current_limit 50000;// 40; 
     status CLOSED; 
} 

object fuse:3804 { 
     name R4-12-47-1_fuse_10; 
     phases BN; 
     from R4-12-47-1_node_78; 
     to R4-12-47-1_node_77; 
     current_limit 50000;// 60; 
     status CLOSED; 
} 

object fuse:3805 { 
     name R4-12-47-1_fuse_11; 
     phases ACN; 
     from R4-12-47-1_node_510; 
     to R4-12-47-1_node_85; 
     current_limit 50000;// 40; 
     status CLOSED; 
} 

object fuse:3806 { 
     name R4-12-47-1_fuse_12; 
     phases BN; 
     from R4-12-47-1_node_89; 
     to R4-12-47-1_node_88; 
     current_limit 50000;// 30; 
     status CLOSED; 
} 

object fuse:3807 { 
     name R4-12-47-1_fuse_13; 
     phases BN; 
     from R4-12-47-1_node_105; 
     to R4-12-47-1_node_92; 
     current_limit 50000;// 40; 
     status CLOSED; 
} 

object fuse:3808 { 
     name R4-12-47-1_fuse_14; 
     phases CN; 
     from R4-12-47-1_node_111; 
     to R4-12-47-1_node_112; 
     current_limit 50000;// 40; 
     status CLOSED; 
} 

object fuse:3809 { 
     name R4-12-47-1_fuse_15; 
     phases BN; 
     from R4-12-47-1_node_115; 
     to R4-12-47-1_node_116; 
     current_limit 50000;// 15; 
     status CLOSED; 
} 

object fuse:3810 { 
     name R4-12-47-1_fuse_16; 
     phases BN; 
     from R4-12-47-1_node_119; 
     to R4-12-47-1_node_120; 
     current_limit 50000;// 50; 
     status CLOSED; 
} 

object fuse:3811 { 
     name R4-12-47-1_fuse_17; 
     phases ACN; 
     from R4-12-47-1_node_494; 
     to R4-12-47-1_node_122; 
     current_limit 50000;// 40; 
     status CLOSED; 
} 

object fuse:3812 { 
     name R4-12-47-1_fuse_18; 
     phases AN; 
     from R4-12-47-1_node_127; 
     to R4-12-47-1_node_128; 
     current_limit 50000;// 60; 
     status CLOSED; 
} 

object fuse:3813 { 
     name R4-12-47-1_fuse_19; 
     phases AN; 
     from R4-12-47-1_node_41; 
     to R4-12-47-1_node_129; 
     current_limit 50000;// 60; 
     status CLOSED; 
} 

object fuse:3814 { 
     name R4-12-47-1_fuse_20; 
     phases CN; 
     from R4-12-47-1_node_504; 
     to R4-12-47-1_node_133; 
     current_limit 50000;// 15; 
     status CLOSED; 
} 

object fuse:3815 { 
     name R4-12-47-1_fuse_21; 
     phases BN; 
     from R4-12-47-1_node_560; 
     to R4-12-47-1_node_140; 
     current_limit 50000;// 60; 
     status CLOSED; 
} 

object fuse:3816 { 
     name R4-12-47-1_fuse_22; 
     phases AN; 
     from R4-12-47-1_node_144; 
     to R4-12-47-1_node_143; 
     current_limit 50000;// 60; 
     status CLOSED; 
} 

object fuse:3817 { 
     name R4-12-47-1_fuse_23; 
     phases BN; 
     from R4-12-47-1_node_149; 
     to R4-12-47-1_node_148; 
     current_limit 50000;// 60; 
     status CLOSED; 
} 

object fuse:3818 { 
     name R4-12-47-1_fuse_24; 
     phases CN; 
     from R4-12-47-1_node_151; 
     to R4-12-47-1_node_152; 
     current_limit 50000;// 60; 
     status CLOSED; 
} 

object fuse:3819 { 
     name R4-12-47-1_fuse_25; 
     phases CN; 
     from R4-12-47-1_node_150; 
     to R4-12-47-1_node_153; 
     current_limit 50000;// 60; 
     status CLOSED; 
} 

object fuse:3820 { 
     name R4-12-47-1_fuse_26; 
     phases BN; 
     from R4-12-47-1_node_164; 
     to R4-12-47-1_node_165; 
     current_limit 50000;// 15; 
     status CLOSED; 
} 

object fuse:3821 { 
     name R4-12-47-1_fuse_27; 
     phases AN; 
     from R4-12-47-1_node_168; 
     to R4-12-47-1_node_167; 
     current_limit 50000;// 40; 
     status CLOSED; 
} 

object fuse:3822 { 
     name R4-12-47-1_fuse_28; 
     phases AN; 
     from R4-12-47-1_node_171; 
     to R4-12-47-1_node_172; 
     current_limit 50000;// 40; 
     status CLOSED; 
} 

object fuse:3823 { 
     name R4-12-47-1_fuse_29; 
     phases AN; 
     from R4-12-47-1_node_174; 
     to R4-12-47-1_node_173; 
     current_limit 50000;// 25; 
     status CLOSED; 
} 

object fuse:3824 { 
     name R4-12-47-1_fuse_30; 
     phases AN; 
     from R4-12-47-1_node_176; 
     to R4-12-47-1_node_177; 
     current_limit 50000;// 25; 
     status CLOSED; 
} 

object fuse:3825 { 
     name R4-12-47-1_fuse_31; 
     phases BN; 
     from R4-12-47-1_node_489; 
     to R4-12-47-1_node_183; 
     current_limit 50000;// 100; 
     status CLOSED; 
} 

object fuse:3826 { 
     name R4-12-47-1_fuse_32; 
     phases ABN; 
     from R4-12-47-1_node_491; 
     to R4-12-47-1_node_187; 
     current_limit 50000;// 60; 
     status CLOSED; 
} 

object fuse:3827 { 
     name R4-12-47-1_fuse_33; 
     phases BCN; 
     from R4-12-47-1_node_495; 
     to R4-12-47-1_node_201; 
     current_limit 50000;// 40; 
     status CLOSED; 
} 

object fuse:3828 { 
     name R4-12-47-1_fuse_34; 
     phases BN; 
     from R4-12-47-1_node_497; 
     to R4-12-47-1_node_206; 
     current_limit 50000;// 40; 
     status CLOSED; 
} 

object fuse:3829 { 
     name R4-12-47-1_fuse_35; 
     phases ABN; 
     from R4-12-47-1_node_500; 
     to R4-12-47-1_node_216; 
     current_limit 50000;// 40; 
     status CLOSED; 
} 

object fuse:3830 { 
     name R4-12-47-1_fuse_36; 
     phases AN; 
     from R4-12-47-1_node_502; 
     to R4-12-47-1_node_220; 
     current_limit 50000;// 40; 
     status CLOSED; 
} 

object fuse:3831 { 
     name R4-12-47-1_fuse_37; 
     phases ABCN; 
     from R4-12-47-1_node_503; 
     to R4-12-47-1_node_223; 
     current_limit 50000;// 40; 
     status CLOSED; 
} 

object fuse:3832 { 
     name R4-12-47-1_fuse_38; 
     phases CN; 
     from R4-12-47-1_node_511; 
     to R4-12-47-1_node_240; 
     current_limit 50000;// 40; 
     status CLOSED; 
} 

object fuse:3833 { 
     name R4-12-47-1_fuse_39; 
     phases BN; 
     from R4-12-47-1_node_512; 
     to R4-12-47-1_node_250; 
     current_limit 50000;// 100; 
     status CLOSED; 
} 

object fuse:3834 { 
     name R4-12-47-1_fuse_40; 
     phases BN; 
     from R4-12-47-1_node_16; 
     to R4-12-47-1_node_253; 
     current_limit 50000;// 100; 
     status CLOSED; 
} 

object fuse:3835 { 
     name R4-12-47-1_fuse_41; 
     phases CN; 
     from R4-12-47-1_node_513; 
     to R4-12-47-1_node_255; 
     current_limit 50000;// 100; 
     status CLOSED; 
} 

object fuse:3836 { 
     name R4-12-47-1_fuse_42; 
     phases BN; 
     from R4-12-47-1_node_514; 
     to R4-12-47-1_node_257; 
     current_limit 50000;// 100; 
     status CLOSED; 
} 

object fuse:3837 { 
     name R4-12-47-1_fuse_43; 
     phases CN; 
     from R4-12-47-1_node_516; 
     to R4-12-47-1_node_268; 
     current_limit 50000;// 100; 
     status CLOSED; 
} 

object fuse:3838 { 
     name R4-12-47-1_fuse_44; 
     phases CN; 
     from R4-12-47-1_node_519; 
     to R4-12-47-1_node_277; 
     current_limit 50000;// 60; 
     status CLOSED; 
} 

object fuse:3839 { 
     name R4-12-47-1_fuse_45; 
     phases CN; 
     from R4-12-47-1_node_521; 
     to R4-12-47-1_node_290; 
     current_limit 50000;// 100; 
     status CLOSED; 
} 

object fuse:3840 { 
     name R4-12-47-1_fuse_46; 
     phases CN; 
     from R4-12-47-1_node_526; 
     to R4-12-47-1_node_314; 
     current_limit 50000;// 60; 
     status CLOSED; 
} 

object fuse:3841 { 
     name R4-12-47-1_fuse_47; 
     phases ABCN; 
     from R4-12-47-1_node_4; 
     to R4-12-47-1_node_337; 
     current_limit 50000;// 100; 
     status CLOSED; 
} 

object fuse:3842 { 
     name R4-12-47-1_fuse_48; 
     phases AN; 
     from R4-12-47-1_node_527; 
     to R4-12-47-1_node_338; 
     current_limit 50000;// 60; 
     status CLOSED; 
} 

object fuse:3843 { 
     name R4-12-47-1_fuse_49; 
     phases AN; 
     from R4-12-47-1_node_530; 
     to R4-12-47-1_node_346; 
     current_limit 50000;// 100; 
     status CLOSED; 
} 

object fuse:3844 { 
     name R4-12-47-1_fuse_50; 
     phases BN; 
     from R4-12-47-1_node_531; 
     to R4-12-47-1_node_359; 
     current_limit 50000;// 100; 
     status CLOSED; 
} 

object fuse:3845 { 
     name R4-12-47-1_fuse_51; 
     phases AN; 
     from R4-12-47-1_node_69; 
     to R4-12-47-1_node_376; 
     current_limit 50000;// 60; 
     status CLOSED; 
} 

object fuse:3846 { 
     name R4-12-47-1_fuse_52; 
     phases AN; 
     from R4-12-47-1_node_490; 
     to R4-12-47-1_node_388; 
     current_limit 50000;// 40; 
     status CLOSED; 
} 

object fuse:3847 { 
     name R4-12-47-1_fuse_53; 
     phases ABN; 
     from R4-12-47-1_node_492; 
     to R4-12-47-1_node_393; 
     current_limit 50000;// 100; 
     status CLOSED; 
} 

object fuse:3848 { 
     name R4-12-47-1_fuse_54; 
     phases BN; 
     from R4-12-47-1_node_20; 
     to R4-12-47-1_node_397; 
     current_limit 50000;// 40; 
     status CLOSED; 
} 

object fuse:3849 { 
     name R4-12-47-1_fuse_55; 
     phases CN; 
     from R4-12-47-1_node_496; 
     to R4-12-47-1_node_403; 
     current_limit 50000;// 40; 
     status CLOSED; 
} 

object fuse:3850 { 
     name R4-12-47-1_fuse_56; 
     phases CN; 
     from R4-12-47-1_node_498; 
     to R4-12-47-1_node_406; 
     current_limit 50000;// 40; 
     status CLOSED; 
} 

object fuse:3851 { 
     name R4-12-47-1_fuse_57; 
     phases BN; 
     from R4-12-47-1_node_1; 
     to R4-12-47-1_node_409; 
     current_limit 50000;// 40; 
     status CLOSED; 
} 

object fuse:3852 { 
     name R4-12-47-1_fuse_58; 
     phases BN; 
     from R4-12-47-1_node_509; 
     to R4-12-47-1_node_411; 
     current_limit 50000;// 40; 
     status CLOSED; 
} 

object fuse:3853 { 
     name R4-12-47-1_fuse_59; 
     phases CN; 
     from R4-12-47-1_node_15; 
     to R4-12-47-1_node_413; 
     current_limit 50000;// 100; 
     status CLOSED; 
} 

object fuse:3854 { 
     name R4-12-47-1_fuse_60; 
     phases CN; 
     from R4-12-47-1_node_110; 
     to R4-12-47-1_node_419; 
     current_limit 50000;// 50; 
     status CLOSED; 
} 

object fuse:3855 { 
     name R4-12-47-1_fuse_61; 
     phases ABCN; 
     from R4-12-47-1_node_3; 
     to R4-12-47-1_node_429; 
     current_limit 50000;// 100; 
     status CLOSED; 
} 

object fuse:3856 { 
     name R4-12-47-1_fuse_62; 
     phases AN; 
     from R4-12-47-1_node_520; 
     to R4-12-47-1_node_435; 
     current_limit 50000;// 100; 
     status CLOSED; 
} 

object fuse:3857 { 
     name R4-12-47-1_fuse_63; 
     phases ACN; 
     from R4-12-47-1_node_522; 
     to R4-12-47-1_node_437; 
     current_limit 50000;// 100; 
     status CLOSED; 
} 

object fuse:3858 { 
     name R4-12-47-1_fuse_64; 
     phases BN; 
     from R4-12-47-1_node_523; 
     to R4-12-47-1_node_445; 
     current_limit 50000;// 60; 
     status CLOSED; 
} 

object fuse:3859 { 
     name R4-12-47-1_fuse_65; 
     phases CN; 
     from R4-12-47-1_node_524; 
     to R4-12-47-1_node_446; 
     current_limit 50000;// 60; 
     status CLOSED; 
} 

object fuse:3860 { 
     name R4-12-47-1_fuse_66; 
     phases AN; 
     from R4-12-47-1_node_525; 
     to R4-12-47-1_node_449; 
     current_limit 50000;// 60; 
     status CLOSED; 
} 

object fuse:3861 { 
     name R4-12-47-1_fuse_67; 
     phases CN; 
     from R4-12-47-1_node_505; 
     to R4-12-47-1_node_506; 
     current_limit 50000;// 40; 
     status CLOSED; 
} 

object fuse:3862 { 
     name R4-12-47-1_fuse_68; 
     phases CN; 
     from R4-12-47-1_node_506; 
     to R4-12-47-1_node_534; 
     current_limit 50000;// 15; 
     status CLOSED; 
} 

object fuse:3863 { 
     name R4-12-47-1_fuse_69; 
     phases CN; 
     from R4-12-47-1_node_507; 
     to R4-12-47-1_node_535; 
     current_limit 50000;// 25; 
     status CLOSED; 
} 

object fuse:3864 { 
     name R4-12-47-1_fuse_70; 
     phases AN; 
     from R4-12-47-1_node_508; 
     to R4-12-47-1_node_536; 
     current_limit 50000;// 40; 
     status CLOSED; 
} 

object fuse:3865 { 
     name R4-12-47-1_fuse_71; 
     phases ABCN; 
     from R4-12-47-1_node_517; 
     to R4-12-47-1_node_537; 
     current_limit 50000;// 15; 
     status CLOSED; 
} 

object fuse:3866 { 
     name R4-12-47-1_fuse_72; 
     phases BN; 
     from R4-12-47-1_node_529; 
     to R4-12-47-1_node_538; 
     current_limit 50000;// 30; 
     status CLOSED; 
} 

object fuse:3867 { 
     name R4-12-47-1_fuse_73; 
     phases BN; 
     from R4-12-47-1_node_487; 
     to R4-12-47-1_node_539; 
     current_limit 50000;// 60; 
     status CLOSED; 
} 

object fuse:3868 { 
     name R4-12-47-1_fuse_74; 
     phases BN; 
     from R4-12-47-1_node_528; 
     to R4-12-47-1_node_540; 
     current_limit 50000;// 60; 
     status CLOSED; 
} 

object fuse:3869 { 
     name R4-12-47-1_fuse_75; 
     phases AN; 
     from R4-12-47-1_node_548; 
     to R4-12-47-1_node_549; 
     current_limit 50000;// 40; 
     status CLOSED; 
} 

object fuse:3870 { 
     name R4-12-47-1_fuse_76; 
     phases CN; 
     from R4-12-47-1_node_556; 
     to R4-12-47-1_node_554; 
     current_limit 50000;// 40; 
     status CLOSED; 
} 

object fuse:3871 { 
     name R4-12-47-1_fuse_77; 
     phases CN; 
     from R4-12-47-1_node_558; 
     to R4-12-47-1_node_559; 
     current_limit 50000;// 25; 
     status CLOSED; 
} 

object fuse:3872 { 
     name R4-12-47-1_fuse_78; 
     phases BN; 
     from R4-12-47-1_node_43; 
     to R4-12-47-1_node_563; 
     current_limit 50000;// 100; 
     status CLOSED; 
} 

object fuse:3873 { 
     name R4-12-47-1_fuse_79; 
     phases BN; 
     from R4-12-47-1_node_564; 
     to R4-12-47-1_node_565; 
     current_limit 50000;// 15; 
     status CLOSED; 
} 

object line_configuration:21 { 
     conductor_B overhead_line_conductor:2; 
     conductor_N overhead_line_conductor:2; 
     spacing line_spacing:8; 
} 

object line_configuration:22 { 
     conductor_C overhead_line_conductor:2; 
     conductor_N overhead_line_conductor:2; 
     spacing line_spacing:9; 
} 

object line_configuration:23 { 
     conductor_A overhead_line_conductor:3; 
     conductor_B overhead_line_conductor:3; 
     conductor_C overhead_line_conductor:3; 
     conductor_N overhead_line_conductor:3; 
     spacing line_spacing:10; 
} 

object line_configuration:24 { 
     conductor_A overhead_line_conductor:3; 
     conductor_B overhead_line_conductor:3; 
     conductor_C overhead_line_conductor:3; 
     conductor_N overhead_line_conductor:3; 
     spacing line_spacing:10; 
} 

object line_configuration:25 { 
     conductor_A overhead_line_conductor:4; 
     conductor_B overhead_line_conductor:4; 
     conductor_C overhead_line_conductor:4; 
     conductor_N overhead_line_conductor:4; 
     spacing line_spacing:10; 
} 

object line_configuration:26 { 
     conductor_A overhead_line_conductor:5; 
     conductor_B overhead_line_conductor:5; 
     conductor_C overhead_line_conductor:5; 
     conductor_N overhead_line_conductor:5; 
     spacing line_spacing:10; 
} 

object line_configuration:27 { 
     conductor_A overhead_line_conductor:5; 
     conductor_B overhead_line_conductor:5; 
     conductor_C overhead_line_conductor:5; 
     conductor_N overhead_line_conductor:5; 
     spacing line_spacing:10; 
} 

object line_configuration:28 { 
     conductor_A overhead_line_conductor:2; 
     conductor_N overhead_line_conductor:2; 
     spacing line_spacing:11; 
} 

object line_configuration:29 { 
     conductor_A overhead_line_conductor:3; 
     conductor_C overhead_line_conductor:3; 
     conductor_N overhead_line_conductor:3; 
     spacing line_spacing:12; 
} 

object line_configuration:30 { 
     conductor_A overhead_line_conductor:6; 
     conductor_B overhead_line_conductor:6; 
     conductor_C overhead_line_conductor:6; 
     conductor_N overhead_line_conductor:6; 
     spacing line_spacing:10; 
} 

object line_configuration:31 { 
     conductor_A overhead_line_conductor:2; 
     conductor_B overhead_line_conductor:2; 
     conductor_N overhead_line_conductor:2; 
     spacing line_spacing:13; 
} 

object line_configuration:32 { 
     conductor_A overhead_line_conductor:2; 
     conductor_B overhead_line_conductor:2; 
     conductor_C overhead_line_conductor:2; 
     conductor_N overhead_line_conductor:2; 
     spacing line_spacing:10; 
} 

object line_configuration:33 { 
     conductor_A overhead_line_conductor:2; 
     conductor_C overhead_line_conductor:2; 
     conductor_N overhead_line_conductor:2; 
     spacing line_spacing:12; 
} 

object line_configuration:34 { 
     conductor_A underground_line_conductor:7; 
     conductor_N underground_line_conductor:7; 
     spacing line_spacing:14; 
} 

object line_configuration:35 { 
     conductor_B overhead_line_conductor:2; 
     conductor_C overhead_line_conductor:2; 
     conductor_N overhead_line_conductor:2; 
     spacing line_spacing:15; 
} 

object line_configuration:36 { 
     conductor_C underground_line_conductor:7; 
     conductor_N underground_line_conductor:7; 
     spacing line_spacing:16; 
} 

object line_configuration:37 { 
     conductor_B underground_line_conductor:7; 
     conductor_N underground_line_conductor:7; 
     spacing line_spacing:17; 
} 

object line_configuration:38 { 
     conductor_B overhead_line_conductor:3; 
     conductor_N overhead_line_conductor:3; 
     spacing line_spacing:8; 
} 

object line_configuration:39 { 
     conductor_C overhead_line_conductor:3; 
     conductor_N overhead_line_conductor:3; 
     spacing line_spacing:9; 
} 

object line_configuration:40 { 
     conductor_A overhead_line_conductor:4; 
     conductor_B overhead_line_conductor:4; 
     conductor_C overhead_line_conductor:4; 
     conductor_N overhead_line_conductor:4; 
     spacing line_spacing:10; 
} 

object line_configuration:41 { 
     conductor_A overhead_line_conductor:3; 
     conductor_B overhead_line_conductor:3; 
     conductor_N overhead_line_conductor:3; 
     spacing line_spacing:13; 
} 

object line_configuration:42 { 
     conductor_A overhead_line_conductor:2; 
     conductor_N overhead_line_conductor:2; 
     spacing line_spacing:11; 
} 

object line_configuration:43 { 
     conductor_B overhead_line_conductor:2; 
     conductor_C overhead_line_conductor:2; 
     conductor_N overhead_line_conductor:2; 
     spacing line_spacing:18; 
} 

object line_configuration:44 { 
     conductor_A overhead_line_conductor:2; 
     conductor_B overhead_line_conductor:2; 
     conductor_C overhead_line_conductor:2; 
     conductor_N overhead_line_conductor:2; 
     spacing line_spacing:10; 
} 

object line_configuration:45 { 
     conductor_C overhead_line_conductor:2; 
     conductor_N overhead_line_conductor:2; 
     spacing line_spacing:9; 
} 

object line_configuration:46 { 
     conductor_A overhead_line_conductor:3; 
     conductor_N overhead_line_conductor:3; 
     spacing line_spacing:11; 
} 

object line_configuration:47 { 
     conductor_A underground_line_conductor:7; 
     conductor_B underground_line_conductor:7; 
     conductor_C underground_line_conductor:7; 
     conductor_N underground_line_conductor:7; 
     spacing line_spacing:19; 
} 

object line_configuration:48 { 
     conductor_A overhead_line_conductor:3; 
     conductor_B overhead_line_conductor:3; 
     conductor_C overhead_line_conductor:3; 
     conductor_N overhead_line_conductor:3; 
     spacing line_spacing:20; 
} 

object line_configuration:49 { 
     conductor_B overhead_line_conductor:2; 
     conductor_C overhead_line_conductor:2; 
     conductor_N overhead_line_conductor:2; 
     spacing line_spacing:15; 
} 

object line_spacing:8 { 
     distance_BN 69.99999999996 in; 
} 

object line_spacing:9 { 
     distance_CN 69.99999999996 in; 
} 

object line_spacing:10 { 
     distance_AB 53.19999999996 in; 
     distance_BC 53.19999999996 in; 
     distance_AC 53.19999999996 in; 
     distance_AN 80.49999999996 in; 
     distance_BN 80.49999999996 in; 
     distance_CN 80.49999999996 in; 
} 

object line_spacing:11 { 
     distance_AN 69.99999999996 in; 
} 

object line_spacing:12 { 
     distance_AC 87.99999999996 in; 
     distance_AN 19.2 in; 
     distance_CN 19.2 in; 
} 

object line_spacing:13 { 
     distance_AB 87.99999999996 in; 
     distance_AN 19.2 in; 
     distance_BN 19.2 in; 
} 

object line_spacing:14 { 
     distance_AN 360.0 in; 
} 

object line_spacing:15 { 
     distance_BC 87.99999999996 in; 
     distance_BN 19.2 in; 
     distance_CN 19.2 in; 
} 

object line_spacing:16 { 
     distance_CN 360.0 in; 
} 

object line_spacing:17 { 
     distance_BN 360.0 in; 
} 

object line_spacing:18 { 
     distance_BC 48.0 in; 
     distance_BN 20.79999999996 in; 
     distance_CN 20.79999999996 in; 
} 

object line_spacing:19 { 
     distance_AB 12.0 in; 
     distance_BC 12.0 in; 
     distance_AC 12.0 in; 
     distance_AN 360.0 in; 
     distance_BN 360.0 in; 
     distance_CN 360.0 in; 
} 

object line_spacing:20 { 
     distance_AB 60.50000000004 in; 
     distance_BC 60.50000000004 in; 
     distance_AC 60.50000000004 in; 
     distance_AN 114.99999999996 in; 
     distance_BN 114.99999999996 in; 
     distance_CN 114.99999999996 in; 
} 

object load:621 { 
     name R4-12-47-1_load_1; 
     parent R4-12-47-1_meter_1; 
     phases CN; 
     voltage_C -3983.72+6900j; 
     constant_power_C 966.4602683399999+493.48119995999997j;
     nominal_voltage 480; 
     load_class C; 
} 

object load:622 { 
     name R4-12-47-1_load_2; 
     parent R4-12-47-1_meter_2; 
     phases ABCN; 
     voltage_A 7967.43+0.0j; 
     voltage_B -3983.72-6900j; 
     voltage_C -3983.72+6900j; 
     constant_power_A 39656.175467999994+20661.222918j;
     constant_power_B 0+0j;
     constant_power_C 40269.178025999994+20561.716308j;
     nominal_voltage 480; 
     load_class C; 
} 

object load:623 { 
     name R4-12-47-1_load_3; 
     parent R4-12-47-1_meter_3; 
     phases ABCN; 
     voltage_A 7967.43+0.0j; 
     voltage_B -3983.72-6900j; 
     voltage_C -3983.72+6900j; 
     constant_power_A 23793.705495000002+12396.733965j;
     constant_power_B 0+0j;
     constant_power_C 0+0j;
     nominal_voltage 480; 
     load_class C; 
} 

object load:624 { 
     name R4-12-47-1_load_4; 
     parent R4-12-47-1_meter_4; 
     phases ABCN; 
     voltage_A 7967.43+0.0j; 
     voltage_B -3983.72-6900j; 
     voltage_C -3983.72+6900j; 
     constant_power_A 79312.351293+41322.445836j;
     constant_power_B 0+0j;
     constant_power_C 16107.671138999998+8224.686666j;
     nominal_voltage 480; 
     load_class C; 
} 

object load:625 { 
     name R4-12-47-1_load_5; 
     parent R4-12-47-1_meter_5; 
     phases ABCN; 
     voltage_A 7967.43+0.0j; 
     voltage_B -3983.72-6900j; 
     voltage_C -3983.72+6900j; 
     constant_power_A 264903.252726+138016.969692j;
     constant_power_B 219948.848112+118583.43478799998j;
     constant_power_C 268998.109128+137352.26567999998j;
     nominal_voltage 480; 
     load_class C; 
} 

object load:626 { 
     name R4-12-47-1_load_6; 
     parent R4-12-47-1_meter_6; 
     phases ABN; 
     voltage_A 7967.43+0.0j; 
     voltage_B -3983.72-6900j; 
     constant_power_A 39656.175467999994+20661.222918j;
     constant_power_B 32926.47414+17752.011354j;
     nominal_voltage 480; 
     load_class C; 
} 

object load:627 { 
     name R4-12-47-1_load_7; 
     parent R4-12-47-1_meter_7; 
     phases ABCN; 
     voltage_A 7967.43+0.0j; 
     voltage_B -3983.72-6900j; 
     voltage_C -3983.72+6900j; 
     constant_power_A 0+0j;
     constant_power_B 4385.8063554479995+2364.567936129j;
     constant_power_C 0+0j;
     nominal_voltage 480; 
     load_class C; 
} 

object load:628 { 
     name R4-12-47-1_load_8; 
     parent R4-12-47-1_meter_8; 
     phases ABCN; 
     voltage_A 7967.43+0.0j; 
     voltage_B -3983.72-6900j; 
     voltage_C -3983.72+6900j; 
     constant_power_A 79312.351293+41322.445836j;
     constant_power_B 65852.948637+35504.022351j;
     constant_power_C 80538.35605199999+41123.432973j;
     nominal_voltage 480; 
     load_class C; 
} 

object load:629 { 
     name R4-12-47-1_load_9; 
     parent R4-12-47-1_meter_9; 
     phases ACN; 
     voltage_A 7967.43+0.0j; 
     voltage_C -3983.72+6900j; 
     constant_power_A 22604.020016759998+11776.89706326j;
     constant_power_C 9181.37254923+4688.071399619999j;
     nominal_voltage 480; 
     load_class C; 
} 

object load:630 { 
     name R4-12-47-1_load_10; 
     parent R4-12-47-1_meter_10; 
     phases CN; 
     voltage_C -3983.72+6900j; 
     constant_power_C 805.38355695+411.23433329999995j;
     nominal_voltage 480; 
     load_class C; 
} 

object load:631 { 
     name R4-12-47-1_load_11; 
     parent R4-12-47-1_meter_11; 
     phases ABCN; 
     voltage_A 7967.43+0.0j; 
     voltage_B -3983.72-6900j; 
     voltage_C -3983.72+6900j; 
     constant_power_A 39656.175467999994+20661.222918j;
     constant_power_B 32926.47414+17752.011354j;
     constant_power_C 0+0j;
     nominal_voltage 480; 
     load_class C; 
} 

object load:632 { 
     name R4-12-47-1_load_12; 
     parent R4-12-47-1_meter_12; 
     phases ACN; 
     voltage_A 7967.43+0.0j; 
     voltage_C -3983.72+6900j; 
     constant_power_A 79312.351293+41322.445836j;
     constant_power_C 80538.35605199999+41123.432973j;
     nominal_voltage 480; 
     load_class C; 
} 

object load:633 { 
     name R4-12-47-1_load_13; 
     parent R4-12-47-1_meter_13; 
     phases CN; 
     voltage_C -3983.72+6900j; 
     constant_power_C 40228.908847973995+20541.154710573j;
     nominal_voltage 480; 
     load_class C; 
} 

object load:634 { 
     name R4-12-47-1_load_14; 
     parent R4-12-47-1_meter_14; 
     phases BN; 
     voltage_B -3983.72-6900j; 
     constant_power_B 10964.515888619999+5911.419780882j;
     nominal_voltage 480; 
     load_class C; 
} 

object load:635 { 
     name R4-12-47-1_load_15; 
     parent R4-12-47-1_meter_15; 
     phases BN; 
     voltage_B -3983.72-6900j; 
     constant_power_B 10964.515888619999+5911.419780882j;
     nominal_voltage 480; 
     load_class C; 
} 

object load:636 { 
     name R4-12-47-1_load_16; 
     parent R4-12-47-1_meter_16; 
     phases AN; 
     voltage_A 7967.43+0.0j; 
     constant_power_A 26411.012980568998+13760.374463388j;
     nominal_voltage 480; 
     load_class C; 
} 

object load:637 { 
     name R4-12-47-1_load_17; 
     parent R4-12-47-1_meter_17; 
     phases ABN; 
     voltage_A 7967.43+0.0j; 
     voltage_B -3983.72-6900j; 
     constant_power_A 13205.506430844+6880.187231694j;
     constant_power_B 10964.515888619999+5911.419780882j;
     nominal_voltage 480; 
     load_class C; 
} 

object load:638 { 
     name R4-12-47-1_load_18; 
     parent R4-12-47-1_meter_18; 
     phases ABCN; 
     voltage_A 7967.43+0.0j; 
     voltage_B -3983.72-6900j; 
     voltage_C -3983.72+6900j; 
     constant_power_A 39656.175467999994+20661.222918j;
     constant_power_B 32926.47414+17752.011354j;
     constant_power_C 0+0j;
     nominal_voltage 480; 
     load_class C; 
} 

object load:639 { 
     name R4-12-47-1_load_19; 
     parent R4-12-47-1_meter_19; 
     phases ABCN; 
     voltage_A 7967.43+0.0j; 
     voltage_B -3983.72-6900j; 
     voltage_C -3983.72+6900j; 
     constant_power_A 52822.025842257+27520.749045656998j;
     constant_power_B 43858.063792242+23645.678885766j;
     constant_power_C 53638.545130631996+27388.206241137j;
     nominal_voltage 480; 
     load_class C; 
} 

object load:640 { 
     name R4-12-47-1_load_20; 
     parent R4-12-47-1_meter_20; 
     phases BCN; 
     voltage_B -3983.72-6900j; 
     voltage_C -3983.72+6900j; 
     constant_power_B 98779.422777+53256.033704999994j;
     constant_power_C 120807.534078+61685.149281j;
     nominal_voltage 480; 
     load_class C; 
} 

object load:641 { 
     name R4-12-47-1_load_21; 
     parent R4-12-47-1_meter_21; 
     phases BCN; 
     voltage_B -3983.72-6900j; 
     voltage_C -3983.72+6900j; 
     constant_power_B 0+0j;
     constant_power_C 7973.2972727100005+4071.21989967j;
     nominal_voltage 480; 
     load_class C; 
} 

object load:642 { 
     name R4-12-47-1_load_22; 
     parent R4-12-47-1_meter_22; 
     phases BCN; 
     voltage_B -3983.72-6900j; 
     voltage_C -3983.72+6900j; 
     constant_power_B 32926.47414+17752.011354j;
     constant_power_C 40269.178025999994+20561.716308j;
     nominal_voltage 480; 
     load_class C; 
} 

object load:643 { 
     name R4-12-47-1_load_23; 
     parent R4-12-47-1_meter_23; 
     phases CN; 
     voltage_C -3983.72+6900j; 
     constant_power_C 34228.8013221+17477.458861799998j;
     nominal_voltage 480; 
     load_class C; 
} 

object load:644 { 
     name R4-12-47-1_load_24; 
     parent R4-12-47-1_meter_24; 
     phases CN; 
     voltage_C -3983.72+6900j; 
     constant_power_C 2681.927304084+1369.410329889j;
     nominal_voltage 480; 
     load_class C; 
} 

object load:645 { 
     name R4-12-47-1_load_25; 
     parent R4-12-47-1_meter_25; 
     phases CN; 
     voltage_C -3983.72+6900j; 
     constant_power_C 16107.671138999998+8224.686666j;
     nominal_voltage 480; 
     load_class C; 
} 

object load:646 { 
     name R4-12-47-1_load_26; 
     parent R4-12-47-1_meter_26; 
     phases BCN; 
     voltage_B -3983.72-6900j; 
     voltage_C -3983.72+6900j; 
     constant_power_B 65852.948637+35504.022351j;
     constant_power_C 40269.178025999994+20561.716308j;
     nominal_voltage 480; 
     load_class C; 
} 

object load:647 { 
     name R4-12-47-1_load_27; 
     parent R4-12-47-1_meter_27; 
     phases BN; 
     voltage_B -3983.72-6900j; 
     constant_power_B 13170.589656+7100.804612999999j;
     nominal_voltage 480; 
     load_class C; 
} 

object load:648 { 
     name R4-12-47-1_load_28; 
     parent R4-12-47-1_meter_28; 
     phases ABCN; 
     voltage_A 7967.43+0.0j; 
     voltage_B -3983.72-6900j; 
     voltage_C -3983.72+6900j; 
     constant_power_A 39656.175467999994+20661.222918j;
     constant_power_B 0+0j;
     constant_power_C 40269.178025999994+20561.716308j;
     nominal_voltage 480; 
     load_class C; 
} 

object load:649 { 
     name R4-12-47-1_load_29; 
     parent R4-12-47-1_meter_29; 
     phases ACN; 
     voltage_A 7967.43+0.0j; 
     voltage_C -3983.72+6900j; 
     constant_power_A 39656.175467999994+20661.222918j;
     constant_power_C 40269.178025999994+20561.716308j;
     nominal_voltage 480; 
     load_class C; 
} 

object load:650 { 
     name R4-12-47-1_load_30; 
     parent R4-12-47-1_meter_30; 
     phases AN; 
     voltage_A 7967.43+0.0j; 
     constant_power_A 13205.506430844+6880.187231694j;
     nominal_voltage 480; 
     load_class C; 
} 

object load:651 { 
     name R4-12-47-1_load_31; 
     parent R4-12-47-1_meter_31; 
     phases ABCN; 
     voltage_A 7967.43+0.0j; 
     voltage_B -3983.72-6900j; 
     voltage_C -3983.72+6900j; 
     constant_power_A 22207.458262079996+11570.284834080001j;
     constant_power_B 7375.530207359999+3976.4505832799996j;
     constant_power_C 0+0j;
     nominal_voltage 480; 
     load_class C; 
} 

object load:652 { 
     name R4-12-47-1_load_32; 
     parent R4-12-47-1_meter_32; 
     phases CN; 
     voltage_C -3983.72+6900j; 
     constant_power_C 4832.3013774+2467.4059998j;
     nominal_voltage 480; 
     load_class C; 
} 

object load:653 { 
     name R4-12-47-1_load_33; 
     parent R4-12-47-1_meter_33; 
     phases CN; 
     voltage_C -3983.72+6900j; 
     constant_power_C 9664.60272624+4934.81195676j;
     nominal_voltage 480; 
     load_class C; 
} 

object load:654 { 
     name R4-12-47-1_load_34; 
     parent R4-12-47-1_meter_34; 
     phases ACN; 
     voltage_A 7967.43+0.0j; 
     voltage_C -3983.72+6900j; 
     constant_power_A 51553.02834045+26859.5897934j;
     constant_power_C 10469.98624035+5346.0463328999995j;
     nominal_voltage 480; 
     load_class C; 
} 

object load:655 { 
     name R4-12-47-1_load_35; 
     parent R4-12-47-1_meter_35; 
     phases ABCN; 
     voltage_A 7967.43+0.0j; 
     voltage_B -3983.72-6900j; 
     voltage_C -3983.72+6900j; 
     constant_power_A 0+0j;
     constant_power_B 0+0j;
     constant_power_C 25772.27393664+13159.498551359999j;
     nominal_voltage 480; 
     load_class C; 
} 

object load:656 { 
     name R4-12-47-1_load_36; 
     parent R4-12-47-1_meter_36; 
     phases CN; 
     voltage_C -3983.72+6900j; 
     constant_power_C 27785.73283794+14187.58425252j;
     nominal_voltage 480; 
     load_class C; 
} 

object load:657 { 
     name R4-12-47-1_load_37; 
     parent R4-12-47-1_meter_37; 
     phases CN; 
     voltage_C -3983.72+6900j; 
     constant_power_C 604.03767039+308.42574462j;
     nominal_voltage 480; 
     load_class C; 
} 

object load:658 { 
     name R4-12-47-1_load_38; 
     parent R4-12-47-1_meter_38; 
     phases CN; 
     voltage_C -3983.72+6900j; 
     constant_power_C 14496.90408936+7402.21787088j;
     nominal_voltage 480; 
     load_class C; 
} 

object load:659 { 
     name R4-12-47-1_load_39; 
     parent R4-12-47-1_meter_39; 
     phases ABCN; 
     voltage_A 7967.43+0.0j; 
     voltage_B -3983.72-6900j; 
     voltage_C -3983.72+6900j; 
     constant_power_A 264903.252726+138016.969692j;
     constant_power_B 219948.848112+118583.43478799998j;
     constant_power_C 268998.109128+137352.26567999998j;
     nominal_voltage 480; 
     load_class C; 
} 

object load:660 { 
     name R4-12-47-1_load_40; 
     parent R4-12-47-1_meter_40; 
     phases BN; 
     voltage_B -3983.72-6900j; 
     constant_power_B 8890.148082059999+4793.043001319999j;
     nominal_voltage 480; 
     load_class C; 
} 

object load:661 { 
     name R4-12-47-1_load_41; 
     parent R4-12-47-1_meter_41; 
     phases ABCN; 
     voltage_A 7967.43+0.0j; 
     voltage_B -3983.72-6900j; 
     voltage_C -3983.72+6900j; 
     constant_power_A 0+0j;
     constant_power_B 0+0j;
     constant_power_C 28188.4246182+14393.2014156j;
     nominal_voltage 480; 
     load_class C; 
} 

object load:662 { 
     name R4-12-47-1_load_42; 
     parent R4-12-47-1_meter_42; 
     phases AN; 
     voltage_A 7967.43+0.0j; 
     constant_power_A 38069.92844928+19834.77400128j;
     nominal_voltage 480; 
     load_class C; 
} 

object load:663 { 
     name R4-12-47-1_load_43; 
     parent R4-12-47-1_meter_43; 
     phases AN; 
     voltage_A 7967.43+0.0j; 
     constant_power_A 39656.175467999994+20661.222918j;
     nominal_voltage 480; 
     load_class C; 
} 

object load:664 { 
     name R4-12-47-1_load_44; 
     parent R4-12-47-1_meter_44; 
     phases ABCN; 
     voltage_A 7967.43+0.0j; 
     voltage_B -3983.72-6900j; 
     voltage_C -3983.72+6900j; 
     constant_power_A 0+0j;
     constant_power_B 0+0j;
     constant_power_C 13409.636282657999+6847.051530563999j;
     nominal_voltage 480; 
     load_class C; 
} 

object load:665 { 
     name R4-12-47-1_load_45; 
     parent R4-12-47-1_meter_45; 
     phases BN; 
     voltage_B -3983.72-6900j; 
     constant_power_B 13170.589656+7100.804612999999j;
     nominal_voltage 480; 
     load_class C; 
} 

object load:666 { 
     name R4-12-47-1_load_46; 
     parent R4-12-47-1_meter_46; 
     phases CN; 
     voltage_C -3983.72+6900j; 
     constant_power_C 8456.52738546+4317.96042468j;
     nominal_voltage 480; 
     load_class C; 
} 

object load:667 { 
     name R4-12-47-1_load_47; 
     parent R4-12-47-1_meter_47; 
     phases ABCN; 
     voltage_A 7967.43+0.0j; 
     voltage_B -3983.72-6900j; 
     voltage_C -3983.72+6900j; 
     constant_power_A 79312.351293+41322.445836j;
     constant_power_B 65852.948637+35504.022351j;
     constant_power_C 80538.35605199999+41123.432973j;
     nominal_voltage 480; 
     load_class C; 
} 

object load:668 { 
     name R4-12-47-1_load_48; 
     parent R4-12-47-1_meter_48; 
     phases ABCN; 
     voltage_A 7967.43+0.0j; 
     voltage_B -3983.72-6900j; 
     voltage_C -3983.72+6900j; 
     constant_power_A 79312.35111450001+41322.4460145j;
     constant_power_B 109974.424056+59291.71739399999j;
     constant_power_C 80538.35605199999+41123.4327945j;
     nominal_voltage 480; 
     load_class C; 
} 

object load:669 { 
     name R4-12-47-1_load_49; 
     parent R4-12-47-1_meter_49; 
     phases ABCN; 
     voltage_A 7967.43+0.0j; 
     voltage_B -3983.72-6900j; 
     voltage_C -3983.72+6900j; 
     constant_power_A 39656.175467999994+20661.222918j;
     constant_power_B 13170.589656+7100.804612999999j;
     constant_power_C 0+0j;
     nominal_voltage 480; 
     load_class C; 
} 

object load:670 { 
     name R4-12-47-1_load_50; 
     parent R4-12-47-1_meter_50; 
     phases BCN; 
     voltage_B -3983.72-6900j; 
     voltage_C -3983.72+6900j; 
     constant_power_B 32926.47414+17752.011354j;
     constant_power_C 16107.671138999998+8224.686666j;
     nominal_voltage 480; 
     load_class C; 
} 

object load:671 { 
     name R4-12-47-1_load_51; 
     parent R4-12-47-1_meter_51; 
     phases BCN; 
     voltage_B -3983.72-6900j; 
     voltage_C -3983.72+6900j; 
     constant_power_B 32926.47414+17752.011354j;
     constant_power_C 16107.671138999998+8224.686666j;
     nominal_voltage 480; 
     load_class C; 
} 

object load:672 { 
     name R4-12-47-1_load_52; 
     parent R4-12-47-1_meter_52; 
     phases ABN; 
     voltage_A 7967.43+0.0j; 
     voltage_B -3983.72-6900j; 
     constant_power_A 39656.175467999994+20661.222918j;
     constant_power_B 13170.589656+7100.804612999999j;
     nominal_voltage 480; 
     load_class C; 
} 

object load:673 { 
     name R4-12-47-1_load_53; 
     parent R4-12-47-1_meter_53; 
     phases ABCN; 
     voltage_A 7967.43+0.0j; 
     voltage_B -3983.72-6900j; 
     voltage_C -3983.72+6900j; 
     constant_power_A 0+0j;
     constant_power_B 0+0j;
     constant_power_C 644.3068455599999+328.98746664j;
     nominal_voltage 480; 
     load_class C; 
} 

object load:674 { 
     name R4-12-47-1_load_54; 
     parent R4-12-47-1_meter_54; 
     phases ABCN; 
     voltage_A 7967.43+0.0j; 
     voltage_B -3983.72-6900j; 
     voltage_C -3983.72+6900j; 
     constant_power_A 0+0j;
     constant_power_B 10964.515888619999+5911.419780882j;
     constant_power_C 13409.636282657999+6847.051530563999j;
     nominal_voltage 480; 
     load_class C; 
} 

object load:675 { 
     name R4-12-47-1_load_55; 
     parent R4-12-47-1_meter_55; 
     phases BN; 
     voltage_B -3983.72-6900j; 
     constant_power_B 13829.119138799999+7455.844768679999j;
     nominal_voltage 480; 
     load_class C; 
} 

object load:676 { 
     name R4-12-47-1_load_56; 
     parent R4-12-47-1_meter_56; 
     phases CN; 
     voltage_C -3983.72+6900j; 
     constant_power_C 5363.8544892869995+2738.820659778j;
     nominal_voltage 480; 
     load_class C; 
} 

object load:677 { 
     name R4-12-47-1_load_57; 
     parent R4-12-47-1_meter_57; 
     phases ABCN; 
     voltage_A 7967.43+0.0j; 
     voltage_B -3983.72-6900j; 
     voltage_C -3983.72+6900j; 
     constant_power_A 0+0j;
     constant_power_B 0+0j;
     constant_power_C 5363.8544892869995+2738.820659778j;
     nominal_voltage 480; 
     load_class C; 
} 

object load:678 { 
     name R4-12-47-1_load_58; 
     parent R4-12-47-1_meter_58; 
     phases ABCN; 
     voltage_A 7967.43+0.0j; 
     voltage_B -3983.72-6900j; 
     voltage_C -3983.72+6900j; 
     constant_power_A 0+0j;
     constant_power_B 0+0j;
     constant_power_C 40269.178025999994+20561.716308j;
     nominal_voltage 480; 
     load_class C; 
} 

object load:679 { 
     name R4-12-47-1_load_59; 
     parent R4-12-47-1_meter_59; 
     phases BN; 
     voltage_B -3983.72-6900j; 
     constant_power_B 32926.47414+17752.011354j;
     nominal_voltage 480; 
     load_class C; 
} 

object load:680 { 
     name R4-12-47-1_load_60; 
     parent R4-12-47-1_meter_60; 
     phases AN; 
     voltage_A 7967.43+0.0j; 
     constant_power_A 5282.202619889999+2752.07494023j;
     nominal_voltage 480; 
     load_class C; 
} 

object load:681 { 
     name R4-12-47-1_load_61; 
     parent R4-12-47-1_meter_61; 
     phases CN; 
     voltage_C -3983.72+6900j; 
     constant_power_C 21745.35613404+11103.32690271j;
     nominal_voltage 480; 
     load_class C; 
} 

object load:682 { 
     name R4-12-47-1_load_62; 
     parent R4-12-47-1_meter_62; 
     phases AN; 
     voltage_A 7967.43+0.0j; 
     constant_power_A 793.1235129300001+413.22445836j;
     nominal_voltage 480; 
     load_class C; 
} 

object load:683 { 
     name R4-12-47-1_load_63; 
     parent R4-12-47-1_meter_63; 
     phases ABCN; 
     voltage_A 7967.43+0.0j; 
     voltage_B -3983.72-6900j; 
     voltage_C -3983.72+6900j; 
     constant_power_A 0+0j;
     constant_power_B 0+0j;
     constant_power_C 5363.8544892869995+2738.820659778j;
     nominal_voltage 480; 
     load_class C; 
} 

object load:684 { 
     name R4-12-47-1_load_64; 
     parent R4-12-47-1_meter_64; 
     phases ABCN; 
     voltage_A 7967.43+0.0j; 
     voltage_B -3983.72-6900j; 
     voltage_C -3983.72+6900j; 
     constant_power_A 79312.351293+41322.445836j;
     constant_power_B 65852.948637+35504.022351j;
     constant_power_C 80538.35605199999+41123.432973j;
     nominal_voltage 480; 
     load_class C; 
} 

object load:685 { 
     name R4-12-47-1_load_65; 
     parent R4-12-47-1_meter_65; 
     phases ABCN; 
     voltage_A 7967.43+0.0j; 
     voltage_B -3983.72-6900j; 
     voltage_C -3983.72+6900j; 
     constant_power_A 0+0j;
     constant_power_B 0+0j;
     constant_power_C 5363.8544892869995+2738.820659778j;
     nominal_voltage 480; 
     load_class C; 
} 

object load:686 { 
     name R4-12-47-1_load_66; 
     parent R4-12-47-1_meter_66; 
     phases BN; 
     voltage_B -3983.72-6900j; 
     constant_power_B 65852.948637+35504.022351j;
     nominal_voltage 480; 
     load_class C; 
} 

object load:687 { 
     name R4-12-47-1_load_67; 
     parent R4-12-47-1_meter_67; 
     phases BN; 
     voltage_B -3983.72-6900j; 
     constant_power_B 21929.031896121+11822.839442883j;
     nominal_voltage 480; 
     load_class C; 
} 

object load:688 { 
     name R4-12-47-1_load_68; 
     parent R4-12-47-1_meter_68; 
     phases BCN; 
     voltage_B -3983.72-6900j; 
     voltage_C -3983.72+6900j; 
     constant_power_B 32926.47414+17752.011354j;
     constant_power_C 40269.178025999994+20561.716308j;
     nominal_voltage 480; 
     load_class C; 
} 

object load:689 { 
     name R4-12-47-1_load_69; 
     parent R4-12-47-1_meter_69; 
     phases BN; 
     voltage_B -3983.72-6900j; 
     constant_power_B 13170.589656+7100.804612999999j;
     nominal_voltage 480; 
     load_class C; 
} 

object load:690 { 
     name R4-12-47-1_load_70; 
     parent R4-12-47-1_meter_70; 
     phases ABCN; 
     voltage_A 7967.43+0.0j; 
     voltage_B -3983.72-6900j; 
     voltage_C -3983.72+6900j; 
     constant_power_A 0+0j;
     constant_power_B 13170.589656+7100.804612999999j;
     constant_power_C 0+0j;
     nominal_voltage 480; 
     load_class C; 
} 

object load:691 { 
     name R4-12-47-1_load_71; 
     parent R4-12-47-1_meter_71; 
     phases ABN; 
     voltage_A 7967.43+0.0j; 
     voltage_B -3983.72-6900j; 
     constant_power_A 39656.175467999994+20661.222918j;
     constant_power_B 32926.47414+17752.011354j;
     nominal_voltage 480; 
     load_class C; 
} 

object load:692 { 
     name R4-12-47-1_load_72; 
     parent R4-12-47-1_meter_72; 
     phases CN; 
     voltage_C -3983.72+6900j; 
     constant_power_C 402.69178026+205.61716307999998j;
     nominal_voltage 480; 
     load_class C; 
} 

object load:693 { 
     name R4-12-47-1_load_73; 
     parent R4-12-47-1_meter_73; 
     phases AN; 
     voltage_A 7967.43+0.0j; 
     constant_power_A 18241.84071528+9504.162542279999j;
     nominal_voltage 480; 
     load_class C; 
} 

object load:694 { 
     name R4-12-47-1_load_74; 
     parent R4-12-47-1_meter_74; 
     phases ABCN; 
     voltage_A 7967.43+0.0j; 
     voltage_B -3983.72-6900j; 
     voltage_C -3983.72+6900j; 
     constant_power_A 79312.351293+41322.445836j;
     constant_power_B 65852.948637+35504.022351j;
     constant_power_C 80538.35605199999+41123.432973j;
     nominal_voltage 480; 
     load_class C; 
} 

object load:695 { 
     name R4-12-47-1_load_75; 
     parent R4-12-47-1_meter_75; 
     phases CN; 
     voltage_C -3983.72+6900j; 
     constant_power_C 1610.76712104+822.4686594599999j;
     nominal_voltage 480; 
     load_class C; 
} 

object meter:2124 { 
     name R4-12-47-1_meter_1; 
     phases CN; 
     voltage_C -3983.72+6900j; 
     nominal_voltage 480; 
} 

object meter:2125 { 
     name R4-12-47-1_meter_2; 
     phases ABCN; 
     voltage_A 7967.43+0.0j; 
     voltage_B -3983.72-6900j; 
     voltage_C -3983.72+6900j; 
     nominal_voltage 480; 
} 

object meter:2126 { 
     name R4-12-47-1_meter_3; 
     phases ABCN; 
     voltage_A 7967.43+0.0j; 
     voltage_B -3983.72-6900j; 
     voltage_C -3983.72+6900j; 
     nominal_voltage 480; 
} 

object meter:2127 { 
     name R4-12-47-1_meter_4; 
     phases ABCN; 
     voltage_A 7967.43+0.0j; 
     voltage_B -3983.72-6900j; 
     voltage_C -3983.72+6900j; 
     nominal_voltage 480; 
} 

object meter:2128 { 
     name R4-12-47-1_meter_5; 
     phases ABCN; 
     voltage_A 7967.43+0.0j; 
     voltage_B -3983.72-6900j; 
     voltage_C -3983.72+6900j; 
     nominal_voltage 480; 
} 

object meter:2129 { 
     name R4-12-47-1_meter_6; 
     phases ABN; 
     voltage_A 7967.43+0.0j; 
     voltage_B -3983.72-6900j; 
     nominal_voltage 480; 
} 

object meter:2130 { 
     name R4-12-47-1_meter_7; 
     phases ABCN; 
     voltage_A 7967.43+0.0j; 
     voltage_B -3983.72-6900j; 
     voltage_C -3983.72+6900j; 
     nominal_voltage 480; 
} 

object meter:2131 { 
     name R4-12-47-1_meter_8; 
     phases ABCN; 
     voltage_A 7967.43+0.0j; 
     voltage_B -3983.72-6900j; 
     voltage_C -3983.72+6900j; 
     nominal_voltage 480; 
} 

object meter:2132 { 
     name R4-12-47-1_meter_9; 
     phases ACN; 
     voltage_A 7967.43+0.0j; 
     voltage_C -3983.72+6900j; 
     nominal_voltage 480; 
} 

object meter:2133 { 
     name R4-12-47-1_meter_10; 
     phases CN; 
     voltage_C -3983.72+6900j; 
     nominal_voltage 480; 
} 

object meter:2134 { 
     name R4-12-47-1_meter_11; 
     phases ABCN; 
     voltage_A 7967.43+0.0j; 
     voltage_B -3983.72-6900j; 
     voltage_C -3983.72+6900j; 
     nominal_voltage 480; 
} 

object meter:2135 { 
     name R4-12-47-1_meter_12; 
     phases ACN; 
     voltage_A 7967.43+0.0j; 
     voltage_C -3983.72+6900j; 
     nominal_voltage 480; 
} 

object meter:2136 { 
     name R4-12-47-1_meter_13; 
     phases CN; 
     voltage_C -3983.72+6900j; 
     nominal_voltage 480; 
} 

object meter:2137 { 
     name R4-12-47-1_meter_14; 
     phases BN; 
     voltage_B -3983.72-6900j; 
     nominal_voltage 480; 
} 

object meter:2138 { 
     name R4-12-47-1_meter_15; 
     phases BN; 
     voltage_B -3983.72-6900j; 
     nominal_voltage 480; 
} 

object meter:2139 { 
     name R4-12-47-1_meter_16; 
     phases AN; 
     voltage_A 7967.43+0.0j; 
     nominal_voltage 480; 
} 

object meter:2140 { 
     name R4-12-47-1_meter_17; 
     phases ABN; 
     voltage_A 7967.43+0.0j; 
     voltage_B -3983.72-6900j; 
     nominal_voltage 480; 
} 

object meter:2141 { 
     name R4-12-47-1_meter_18; 
     phases ABCN; 
     voltage_A 7967.43+0.0j; 
     voltage_B -3983.72-6900j; 
     voltage_C -3983.72+6900j; 
     nominal_voltage 480; 
} 

object meter:2142 { 
     name R4-12-47-1_meter_19; 
     phases ABCN; 
     voltage_A 7967.43+0.0j; 
     voltage_B -3983.72-6900j; 
     voltage_C -3983.72+6900j; 
     nominal_voltage 480; 
} 

object meter:2143 { 
     name R4-12-47-1_meter_20; 
     phases BCN; 
     voltage_B -3983.72-6900j; 
     voltage_C -3983.72+6900j; 
     nominal_voltage 480; 
} 

object meter:2144 { 
     name R4-12-47-1_meter_21; 
     phases BCN; 
     voltage_B -3983.72-6900j; 
     voltage_C -3983.72+6900j; 
     nominal_voltage 480; 
} 

object meter:2145 { 
     name R4-12-47-1_meter_22; 
     phases BCN; 
     voltage_B -3983.72-6900j; 
     voltage_C -3983.72+6900j; 
     nominal_voltage 480; 
} 

object meter:2146 { 
     name R4-12-47-1_meter_23; 
     phases CN; 
     voltage_C -3983.72+6900j; 
     nominal_voltage 480; 
} 

object meter:2147 { 
     name R4-12-47-1_meter_24; 
     phases CN; 
     voltage_C -3983.72+6900j; 
     nominal_voltage 480; 
} 

object meter:2148 { 
     name R4-12-47-1_meter_25; 
     phases CN; 
     voltage_C -3983.72+6900j; 
     nominal_voltage 480; 
} 

object meter:2149 { 
     name R4-12-47-1_meter_26; 
     phases BCN; 
     voltage_B -3983.72-6900j; 
     voltage_C -3983.72+6900j; 
     nominal_voltage 480; 
} 

object meter:2150 { 
     name R4-12-47-1_meter_27; 
     phases BN; 
     voltage_B -3983.72-6900j; 
     nominal_voltage 480; 
} 

object meter:2151 { 
     name R4-12-47-1_meter_28; 
     phases ABCN; 
     voltage_A 7967.43+0.0j; 
     voltage_B -3983.72-6900j; 
     voltage_C -3983.72+6900j; 
     nominal_voltage 480; 
} 

object meter:2152 { 
     name R4-12-47-1_meter_29; 
     phases ACN; 
     voltage_A 7967.43+0.0j; 
     voltage_C -3983.72+6900j; 
     nominal_voltage 480; 
} 

object meter:2153 { 
     name R4-12-47-1_meter_30; 
     phases AN; 
     voltage_A 7967.43+0.0j; 
     nominal_voltage 480; 
} 

object meter:2154 { 
     name R4-12-47-1_meter_31; 
     phases ABCN; 
     voltage_A 7967.43+0.0j; 
     voltage_B -3983.72-6900j; 
     voltage_C -3983.72+6900j; 
     nominal_voltage 480; 
} 

object meter:2155 { 
     name R4-12-47-1_meter_32; 
     phases CN; 
     voltage_C -3983.72+6900j; 
     nominal_voltage 480; 
} 

object meter:2156 { 
     name R4-12-47-1_meter_33; 
     phases CN; 
     voltage_C -3983.72+6900j; 
     nominal_voltage 480; 
} 

object meter:2157 { 
     name R4-12-47-1_meter_34; 
     phases ACN; 
     voltage_A 7967.43+0.0j; 
     voltage_C -3983.72+6900j; 
     nominal_voltage 480; 
} 

object meter:2158 { 
     name R4-12-47-1_meter_35; 
     phases ABCN; 
     voltage_A 7967.43+0.0j; 
     voltage_B -3983.72-6900j; 
     voltage_C -3983.72+6900j; 
     nominal_voltage 480; 
} 

object meter:2159 { 
     name R4-12-47-1_meter_36; 
     phases CN; 
     voltage_C -3983.72+6900j; 
     nominal_voltage 480; 
} 

object meter:2160 { 
     name R4-12-47-1_meter_37; 
     phases CN; 
     voltage_C -3983.72+6900j; 
     nominal_voltage 480; 
} 

object meter:2161 { 
     name R4-12-47-1_meter_38; 
     phases CN; 
     voltage_C -3983.72+6900j; 
     nominal_voltage 480; 
} 

object meter:2162 { 
     name R4-12-47-1_meter_39; 
     phases ABCN; 
     voltage_A 7967.43+0.0j; 
     voltage_B -3983.72-6900j; 
     voltage_C -3983.72+6900j; 
     nominal_voltage 480; 
} 

object meter:2163 { 
     name R4-12-47-1_meter_40; 
     phases BN; 
     voltage_B -3983.72-6900j; 
     nominal_voltage 480; 
} 

object meter:2164 { 
     name R4-12-47-1_meter_41; 
     phases ABCN; 
     voltage_A 7967.43+0.0j; 
     voltage_B -3983.72-6900j; 
     voltage_C -3983.72+6900j; 
     nominal_voltage 480; 
} 

object meter:2165 { 
     name R4-12-47-1_meter_42; 
     phases AN; 
     voltage_A 7967.43+0.0j; 
     nominal_voltage 480; 
} 

object meter:2166 { 
     name R4-12-47-1_meter_43; 
     phases AN; 
     voltage_A 7967.43+0.0j; 
     nominal_voltage 480; 
} 

object meter:2167 { 
     name R4-12-47-1_meter_44; 
     phases ABCN; 
     voltage_A 7967.43+0.0j; 
     voltage_B -3983.72-6900j; 
     voltage_C -3983.72+6900j; 
     nominal_voltage 480; 
} 

object meter:2168 { 
     name R4-12-47-1_meter_45; 
     phases BN; 
     voltage_B -3983.72-6900j; 
     nominal_voltage 480; 
} 

object meter:2169 { 
     name R4-12-47-1_meter_46; 
     phases CN; 
     voltage_C -3983.72+6900j; 
     nominal_voltage 480; 
} 

object meter:2170 { 
     name R4-12-47-1_meter_47; 
     phases ABCN; 
     voltage_A 7967.43+0.0j; 
     voltage_B -3983.72-6900j; 
     voltage_C -3983.72+6900j; 
     nominal_voltage 480; 
} 

object meter:2171 { 
     name R4-12-47-1_meter_48; 
     phases ABCN; 
     voltage_A 7967.43+0.0j; 
     voltage_B -3983.72-6900j; 
     voltage_C -3983.72+6900j; 
     nominal_voltage 480; 
} 

object meter:2172 { 
     name R4-12-47-1_meter_49; 
     phases ABCN; 
     voltage_A 7967.43+0.0j; 
     voltage_B -3983.72-6900j; 
     voltage_C -3983.72+6900j; 
     nominal_voltage 480; 
} 

object meter:2173 { 
     name R4-12-47-1_meter_50; 
     phases BCN; 
     voltage_B -3983.72-6900j; 
     voltage_C -3983.72+6900j; 
     nominal_voltage 480; 
} 

object meter:2174 { 
     name R4-12-47-1_meter_51; 
     phases BCN; 
     voltage_B -3983.72-6900j; 
     voltage_C -3983.72+6900j; 
     nominal_voltage 480; 
} 

object meter:2175 { 
     name R4-12-47-1_meter_52; 
     phases ABN; 
     voltage_A 7967.43+0.0j; 
     voltage_B -3983.72-6900j; 
     nominal_voltage 480; 
} 

object meter:2176 { 
     name R4-12-47-1_meter_53; 
     phases ABCN; 
     voltage_A 7967.43+0.0j; 
     voltage_B -3983.72-6900j; 
     voltage_C -3983.72+6900j; 
     nominal_voltage 480; 
} 

object meter:2177 { 
     name R4-12-47-1_meter_54; 
     phases ABCN; 
     voltage_A 7967.43+0.0j; 
     voltage_B -3983.72-6900j; 
     voltage_C -3983.72+6900j; 
     nominal_voltage 480; 
} 

object meter:2178 { 
     name R4-12-47-1_meter_55; 
     phases BN; 
     voltage_B -3983.72-6900j; 
     nominal_voltage 480; 
} 

object meter:2179 { 
     name R4-12-47-1_meter_56; 
     phases CN; 
     voltage_C -3983.72+6900j; 
     nominal_voltage 480; 
} 

object meter:2180 { 
     name R4-12-47-1_meter_57; 
     phases ABCN; 
     voltage_A 7967.43+0.0j; 
     voltage_B -3983.72-6900j; 
     voltage_C -3983.72+6900j; 
     nominal_voltage 480; 
} 

object meter:2181 { 
     name R4-12-47-1_meter_58; 
     phases ABCN; 
     voltage_A 7967.43+0.0j; 
     voltage_B -3983.72-6900j; 
     voltage_C -3983.72+6900j; 
     nominal_voltage 480; 
} 

object meter:2182 { 
     name R4-12-47-1_meter_59; 
     phases BN; 
     voltage_B -3983.72-6900j; 
     nominal_voltage 480; 
} 

object meter:2183 { 
     name R4-12-47-1_meter_60; 
     phases AN; 
     voltage_A 7967.43+0.0j; 
     nominal_voltage 480; 
} 

object meter:2184 { 
     name R4-12-47-1_meter_61; 
     phases CN; 
     voltage_C -3983.72+6900j; 
     nominal_voltage 480; 
} 

object meter:2185 { 
     name R4-12-47-1_meter_62; 
     phases AN; 
     voltage_A 7967.43+0.0j; 
     nominal_voltage 480; 
} 

object meter:2186 { 
     name R4-12-47-1_meter_63; 
     phases ABCN; 
     voltage_A 7967.43+0.0j; 
     voltage_B -3983.72-6900j; 
     voltage_C -3983.72+6900j; 
     nominal_voltage 480; 
} 

object meter:2187 { 
     name R4-12-47-1_meter_64; 
     phases ABCN; 
     voltage_A 7967.43+0.0j; 
     voltage_B -3983.72-6900j; 
     voltage_C -3983.72+6900j; 
     nominal_voltage 480; 
} 

object meter:2188 { 
     name R4-12-47-1_meter_65; 
     phases ABCN; 
     voltage_A 7967.43+0.0j; 
     voltage_B -3983.72-6900j; 
     voltage_C -3983.72+6900j; 
     nominal_voltage 480; 
} 

object meter:2189 { 
     name R4-12-47-1_meter_66; 
     phases BN; 
     voltage_B -3983.72-6900j; 
     nominal_voltage 480; 
} 

object meter:2190 { 
     name R4-12-47-1_meter_67; 
     phases BN; 
     voltage_B -3983.72-6900j; 
     nominal_voltage 480; 
} 

...